
     RDKit          3D

 10  9  0  0  0  0  0  0  0  0999 V2000
    1.8276    0.1173    0.0000 C   0  0  0  0  0  0  0  0  0  0  0  0
    0.6035   -0.3990    0.0001 C   0  0  0  0  0  0  0  0  0  0  0  0
   -0.6035    0.3990   -0.0001 C   0  0  0  0  0  0  0  0  0  0  0  0
   -0.6080    1.7275   -0.0004 C   0  0  0  0  0  0  0  0  0  0  0  0
    1.9898    1.1830    0.0003 H   0  0  0  0  0  0  0  0  0  0  0  0
    2.7093   -0.5002   -0.0002 H   0  0  0  0  0  0  0  0  0  0  0  0
    0.4640   -1.4725   -0.0002 H   0  0  0  0  0  0  0  0  0  0  0  0
   -1.5366   -0.1498   -0.0001 H   0  0  0  0  0  0  0  0  0  0  0  0
    0.3091    2.2942   -0.0002 H   0  0  0  0  0  0  0  0  0  0  0  0
   -1.5216    2.2967   -0.0013 H   0  0  0  0  0  0  0  0  0  0  0  0
  1  2  2  3
  2  3  1  0
  3  4  2  3
  1  5  1  0
  1  6  1  0
  2  7  1  0
  3  8  1  0
  4  9  1  0
  4 10  1  0
M  END
