
     RDKit          3D

 11 11  0  0  0  0  0  0  0  0999 V2000
    0.8042    0.9966    0.1518 C   0  0  0  0  0  0  0  0  0  0  0  0
   -0.5173    1.0590   -0.0642 C   0  0  0  0  0  0  0  0  0  0  0  0
   -1.0777   -0.3279   -0.1836 C   0  0  0  0  0  0  0  0  0  0  0  0
    0.1500   -1.1708    0.0016 C   0  0  0  0  0  0  0  0  0  0  0  0
    1.2167   -0.3816    0.1925 C   0  0  0  0  0  0  0  0  0  0  0  0
    1.4723    1.8350    0.2781 H   0  0  0  0  0  0  0  0  0  0  0  0
   -1.1003    1.9640   -0.1422 H   0  0  0  0  0  0  0  0  0  0  0  0
   -1.8161   -0.5258    0.5987 H   0  0  0  0  0  0  0  0  0  0  0  0
   -1.5257   -0.4911   -1.1680 H   0  0  0  0  0  0  0  0  0  0  0  0
    0.1608   -2.2499   -0.0178 H   0  0  0  0  0  0  0  0  0  0  0  0
    2.2331   -0.7074    0.3532 H   0  0  0  0  0  0  0  0  0  0  0  0
  1  2  2  0
  2  3  1  0
  3  4  1  0
  4  5  2  0
  5  1  1  0
  1  6  1  0
  2  7  1  0
  3  8  1  0
  3  9  1  0
  4 10  1  0
  5 11  1  0
M  END
