
     RDKit          3D

 18 19  0  0  0  0  0  0  0  0999 V2000
    3.2728   -1.1805   -0.9781 O   0  0  0  0  0  0  0  0  0  0  0  0
    2.2860   -1.8141   -0.6503 C   0  0  0  0  0  0  0  0  0  0  0  0
    2.0033   -3.3094   -0.8587 C   0  0  0  0  0  0  0  0  0  0  0  0
    0.4627   -3.3978   -0.8349 C   0  0  0  0  0  0  0  0  0  0  0  0
    0.0684   -2.2746    0.1399 C   0  0  2  0  0  0  0  0  0  0  0  0
   -1.2047   -1.4215   -0.0912 C   0  0  0  0  0  0  0  0  0  0  0  0
   -0.6694    0.0000    0.0000 C   0  0  0  0  0  0  0  0  0  0  0  0
    0.6694    0.0000   -0.0000 C   0  0  0  0  0  0  0  0  0  0  0  0
    1.1728   -1.3095   -0.0135 N   0  0  0  0  0  0  0  0  0  0  0  0
    2.4640   -3.6513   -1.7879 H   0  0  0  0  0  0  0  0  0  0  0  0
    2.4521   -3.8794   -0.0346 H   0  0  0  0  0  0  0  0  0  0  0  0
    0.0836   -4.3768   -0.5291 H   0  0  0  0  0  0  0  0  0  0  0  0
    0.0623   -3.1739   -1.8309 H   0  0  0  0  0  0  0  0  0  0  0  0
    0.0771   -2.6503    1.1727 H   0  0  0  0  0  0  0  0  0  0  0  0
   -1.6543   -1.6085   -1.0786 H   0  0  0  0  0  0  0  0  0  0  0  0
   -1.9741   -1.6424    0.6556 H   0  0  0  0  0  0  0  0  0  0  0  0
   -1.2940    0.8843    0.0000 H   0  0  0  0  0  0  0  0  0  0  0  0
    1.3650    0.8283   -0.0147 H   0  0  0  0  0  0  0  0  0  0  0  0
  1  2  2  0
  2  3  1  0
  3  4  1  0
  4  5  1  0
  5  6  1  0
  6  7  1  0
  7  8  2  0
  8  9  1  0
  9  2  1  0
  9  5  1  0
  3 10  1  0
  3 11  1  0
  4 12  1  0
  4 13  1  0
  5 14  1  1
  6 15  1  0
  6 16  1  0
  7 17  1  0
  8 18  1  0
M  END
