
     RDKit          3D

 18 19  0  0  0  0  0  0  0  0999 V2000
   -1.4018    2.4888   -0.5464 O   0  0  0  0  0  0  0  0  0  0  0  0
   -1.1130    1.3121   -0.4180 C   0  0  0  0  0  0  0  0  0  0  0  0
   -2.0702    0.1906   -0.0526 C   0  0  0  0  0  0  0  0  0  0  0  0
   -1.1328   -0.8865    0.5302 C   0  0  0  0  0  0  0  0  0  0  0  0
    0.1151   -0.7102   -0.3088 C   0  0  2  0  0  0  0  0  0  0  0  0
    1.4987   -1.0055    0.2731 C   0  0  0  0  0  0  0  0  0  0  0  0
    2.2192    0.3079    0.0502 C   0  0  0  0  0  0  0  0  0  0  0  0
    1.3684    1.2547   -0.3658 C   0  0  0  0  0  0  0  0  0  0  0  0
    0.1308    0.7167   -0.5172 N   0  0  0  0  0  0  0  0  0  0  0  0
   -2.7990    0.5247    0.6896 H   0  0  0  0  0  0  0  0  0  0  0  0
   -2.5768   -0.1581   -0.9576 H   0  0  0  0  0  0  0  0  0  0  0  0
   -1.5551   -1.8927    0.4618 H   0  0  0  0  0  0  0  0  0  0  0  0
   -0.9331   -0.6675    1.5865 H   0  0  0  0  0  0  0  0  0  0  0  0
   -0.0076   -1.1893   -1.2894 H   0  0  0  0  0  0  0  0  0  0  0  0
    1.4630   -1.2511    1.3390 H   0  0  0  0  0  0  0  0  0  0  0  0
    1.9894   -1.8225   -0.2643 H   0  0  0  0  0  0  0  0  0  0  0  0
    3.2593    0.4746    0.2897 H   0  0  0  0  0  0  0  0  0  0  0  0
    1.5454    2.3134   -0.5000 H   0  0  0  0  0  0  0  0  0  0  0  0
  1  2  2  0
  2  3  1  0
  3  4  1  0
  4  5  1  0
  5  6  1  0
  6  7  1  0
  7  8  2  0
  8  9  1  0
  9  2  1  0
  9  5  1  0
  3 10  1  0
  3 11  1  0
  4 12  1  0
  4 13  1  0
  5 14  1  6
  6 15  1  0
  6 16  1  0
  7 17  1  0
  8 18  1  0
M  END
