
     RDKit          3D

  8  8  0  0  0  0  0  0  0  0999 V2000
   -0.0021   -1.2625    0.1649 C   0  0  0  0  0  0  0  0  0  0  0  0
    1.1440   -0.6501   -0.0848 N   0  0  0  0  0  0  0  0  0  0  0  0
    1.1461    0.6464   -0.0849 N   0  0  0  0  0  0  0  0  0  0  0  0
    0.0020    1.2625    0.1649 C   0  0  0  0  0  0  0  0  0  0  0  0
   -1.1439    0.6501   -0.0848 N   0  0  0  0  0  0  0  0  0  0  0  0
   -1.1461   -0.6464   -0.0850 N   0  0  0  0  0  0  0  0  0  0  0  0
   -0.0037   -2.3141    0.3945 H   0  0  0  0  0  0  0  0  0  0  0  0
    0.0039    2.3141    0.3944 H   0  0  0  0  0  0  0  0  0  0  0  0
  1  2  2  0
  2  3  1  0
  3  4  2  0
  4  5  1  0
  5  6  2  0
  6  1  1  0
  1  7  1  0
  4  8  1  0
M  END
